/*--------------------------------*- C++ -*----------------------------------*\
| =========                 |                                                 |
| \\      /  F ield         | OpenFOAM: The Open Source CFD Toolbox           |
|  \\    /   O peration     | Version:  v2006                                 |
|   \\  /    A nd           | Website:  www.openfoam.com                      |
|    \\/     M anipulation  |                                                 |
\*---------------------------------------------------------------------------*/
FoamFile
{
    version     2.0;
    format      ascii;
    class       dictionary;
    location    "constant";
    object      CollectorFaces;
}
// * * * * * * * * * * * * * * * * * * * * * * * * * * * * * * * * * * * * * //

A-0-0
{
type    particleCollector;
mode    polygon;
polygons
(
(
(0.0 0.1 0.0)
(0.0 0.1 0.2)
(0.2 0.1 0.2)
(0.2 0.1 0.0)
)
);
normal    (0 1 0);
negateParcelsOppositeNormal    no;
removeCollected    no;
surfaceFormat    vtk;
resetOnWrite    no;
log    yes;
}

A-1-0
{
type    particleCollector;
mode    polygon;
polygons
(
(
(0.2 0.1 0.0)
(0.2 0.1 0.2)
(0.4 0.1 0.2)
(0.4 0.1 0.0)
)
);
normal    (0 1 0);
negateParcelsOppositeNormal    no;
removeCollected    no;
surfaceFormat    vtk;
resetOnWrite    no;
log    yes;
}

A-2-0
{
type    particleCollector;
mode    polygon;
polygons
(
(
(0.4 0.1 0.0)
(0.4 0.1 0.2)
(0.6000000000000001 0.1 0.2)
(0.6000000000000001 0.1 0.0)
)
);
normal    (0 1 0);
negateParcelsOppositeNormal    no;
removeCollected    no;
surfaceFormat    vtk;
resetOnWrite    no;
log    yes;
}

A-3-0
{
type    particleCollector;
mode    polygon;
polygons
(
(
(0.6000000000000001 0.1 0.0)
(0.6000000000000001 0.1 0.2)
(0.8 0.1 0.2)
(0.8 0.1 0.0)
)
);
normal    (0 1 0);
negateParcelsOppositeNormal    no;
removeCollected    no;
surfaceFormat    vtk;
resetOnWrite    no;
log    yes;
}

A-4-0
{
type    particleCollector;
mode    polygon;
polygons
(
(
(0.8 0.1 0.0)
(0.8 0.1 0.2)
(1.0 0.1 0.2)
(1.0 0.1 0.0)
)
);
normal    (0 1 0);
negateParcelsOppositeNormal    no;
removeCollected    no;
surfaceFormat    vtk;
resetOnWrite    no;
log    yes;
}

A-5-0
{
type    particleCollector;
mode    polygon;
polygons
(
(
(1.0 0.1 0.0)
(1.0 0.1 0.2)
(1.2 0.1 0.2)
(1.2 0.1 0.0)
)
);
normal    (0 1 0);
negateParcelsOppositeNormal    no;
removeCollected    no;
surfaceFormat    vtk;
resetOnWrite    no;
log    yes;
}

A-6-0
{
type    particleCollector;
mode    polygon;
polygons
(
(
(1.2 0.1 0.0)
(1.2 0.1 0.2)
(1.4 0.1 0.2)
(1.4 0.1 0.0)
)
);
normal    (0 1 0);
negateParcelsOppositeNormal    no;
removeCollected    no;
surfaceFormat    vtk;
resetOnWrite    no;
log    yes;
}

A-7-0
{
type    particleCollector;
mode    polygon;
polygons
(
(
(1.4 0.1 0.0)
(1.4 0.1 0.2)
(1.5999999999999999 0.1 0.2)
(1.5999999999999999 0.1 0.0)
)
);
normal    (0 1 0);
negateParcelsOppositeNormal    no;
removeCollected    no;
surfaceFormat    vtk;
resetOnWrite    no;
log    yes;
}

A-8-0
{
type    particleCollector;
mode    polygon;
polygons
(
(
(1.5999999999999999 0.1 0.0)
(1.5999999999999999 0.1 0.2)
(1.7999999999999998 0.1 0.2)
(1.7999999999999998 0.1 0.0)
)
);
normal    (0 1 0);
negateParcelsOppositeNormal    no;
removeCollected    no;
surfaceFormat    vtk;
resetOnWrite    no;
log    yes;
}

A-9-0
{
type    particleCollector;
mode    polygon;
polygons
(
(
(1.7999999999999998 0.1 0.0)
(1.7999999999999998 0.1 0.2)
(1.9999999999999998 0.1 0.2)
(1.9999999999999998 0.1 0.0)
)
);
normal    (0 1 0);
negateParcelsOppositeNormal    no;
removeCollected    no;
surfaceFormat    vtk;
resetOnWrite    no;
log    yes;
}

A-10-0
{
type    particleCollector;
mode    polygon;
polygons
(
(
(1.9999999999999998 0.1 0.0)
(1.9999999999999998 0.1 0.2)
(2.1999999999999997 0.1 0.2)
(2.1999999999999997 0.1 0.0)
)
);
normal    (0 1 0);
negateParcelsOppositeNormal    no;
removeCollected    no;
surfaceFormat    vtk;
resetOnWrite    no;
log    yes;
}

A-11-0
{
type    particleCollector;
mode    polygon;
polygons
(
(
(2.1999999999999997 0.1 0.0)
(2.1999999999999997 0.1 0.2)
(2.4 0.1 0.2)
(2.4 0.1 0.0)
)
);
normal    (0 1 0);
negateParcelsOppositeNormal    no;
removeCollected    no;
surfaceFormat    vtk;
resetOnWrite    no;
log    yes;
}

A-12-0
{
type    particleCollector;
mode    polygon;
polygons
(
(
(2.4 0.1 0.0)
(2.4 0.1 0.2)
(2.6 0.1 0.2)
(2.6 0.1 0.0)
)
);
normal    (0 1 0);
negateParcelsOppositeNormal    no;
removeCollected    no;
surfaceFormat    vtk;
resetOnWrite    no;
log    yes;
}

A-13-0
{
type    particleCollector;
mode    polygon;
polygons
(
(
(2.6 0.1 0.0)
(2.6 0.1 0.2)
(2.8000000000000003 0.1 0.2)
(2.8000000000000003 0.1 0.0)
)
);
normal    (0 1 0);
negateParcelsOppositeNormal    no;
removeCollected    no;
surfaceFormat    vtk;
resetOnWrite    no;
log    yes;
}

A-14-0
{
type    particleCollector;
mode    polygon;
polygons
(
(
(2.8000000000000003 0.1 0.0)
(2.8000000000000003 0.1 0.2)
(3.0000000000000004 0.1 0.2)
(3.0000000000000004 0.1 0.0)
)
);
normal    (0 1 0);
negateParcelsOppositeNormal    no;
removeCollected    no;
surfaceFormat    vtk;
resetOnWrite    no;
log    yes;
}

A-15-0
{
type    particleCollector;
mode    polygon;
polygons
(
(
(3.0000000000000004 0.1 0.0)
(3.0000000000000004 0.1 0.2)
(3.2000000000000006 0.1 0.2)
(3.2000000000000006 0.1 0.0)
)
);
normal    (0 1 0);
negateParcelsOppositeNormal    no;
removeCollected    no;
surfaceFormat    vtk;
resetOnWrite    no;
log    yes;
}

A-16-0
{
type    particleCollector;
mode    polygon;
polygons
(
(
(3.2000000000000006 0.1 0.0)
(3.2000000000000006 0.1 0.2)
(3.400000000000001 0.1 0.2)
(3.400000000000001 0.1 0.0)
)
);
normal    (0 1 0);
negateParcelsOppositeNormal    no;
removeCollected    no;
surfaceFormat    vtk;
resetOnWrite    no;
log    yes;
}

A-17-0
{
type    particleCollector;
mode    polygon;
polygons
(
(
(3.400000000000001 0.1 0.0)
(3.400000000000001 0.1 0.2)
(3.600000000000001 0.1 0.2)
(3.600000000000001 0.1 0.0)
)
);
normal    (0 1 0);
negateParcelsOppositeNormal    no;
removeCollected    no;
surfaceFormat    vtk;
resetOnWrite    no;
log    yes;
}

A-18-0
{
type    particleCollector;
mode    polygon;
polygons
(
(
(3.600000000000001 0.1 0.0)
(3.600000000000001 0.1 0.2)
(3.800000000000001 0.1 0.2)
(3.800000000000001 0.1 0.0)
)
);
normal    (0 1 0);
negateParcelsOppositeNormal    no;
removeCollected    no;
surfaceFormat    vtk;
resetOnWrite    no;
log    yes;
}

A-19-0
{
type    particleCollector;
mode    polygon;
polygons
(
(
(3.800000000000001 0.1 0.0)
(3.800000000000001 0.1 0.2)
(4.000000000000001 0.1 0.2)
(4.000000000000001 0.1 0.0)
)
);
normal    (0 1 0);
negateParcelsOppositeNormal    no;
removeCollected    no;
surfaceFormat    vtk;
resetOnWrite    no;
log    yes;
}

A-20-0
{
type    particleCollector;
mode    polygon;
polygons
(
(
(4.000000000000001 0.1 0.0)
(4.000000000000001 0.1 0.2)
(4.200000000000001 0.1 0.2)
(4.200000000000001 0.1 0.0)
)
);
normal    (0 1 0);
negateParcelsOppositeNormal    no;
removeCollected    no;
surfaceFormat    vtk;
resetOnWrite    no;
log    yes;
}

A-21-0
{
type    particleCollector;
mode    polygon;
polygons
(
(
(4.200000000000001 0.1 0.0)
(4.200000000000001 0.1 0.2)
(4.400000000000001 0.1 0.2)
(4.400000000000001 0.1 0.0)
)
);
normal    (0 1 0);
negateParcelsOppositeNormal    no;
removeCollected    no;
surfaceFormat    vtk;
resetOnWrite    no;
log    yes;
}

A-22-0
{
type    particleCollector;
mode    polygon;
polygons
(
(
(4.400000000000001 0.1 0.0)
(4.400000000000001 0.1 0.2)
(4.600000000000001 0.1 0.2)
(4.600000000000001 0.1 0.0)
)
);
normal    (0 1 0);
negateParcelsOppositeNormal    no;
removeCollected    no;
surfaceFormat    vtk;
resetOnWrite    no;
log    yes;
}

A-23-0
{
type    particleCollector;
mode    polygon;
polygons
(
(
(4.600000000000001 0.1 0.0)
(4.600000000000001 0.1 0.2)
(4.800000000000002 0.1 0.2)
(4.800000000000002 0.1 0.0)
)
);
normal    (0 1 0);
negateParcelsOppositeNormal    no;
removeCollected    no;
surfaceFormat    vtk;
resetOnWrite    no;
log    yes;
}

A-24-0
{
type    particleCollector;
mode    polygon;
polygons
(
(
(4.800000000000002 0.1 0.0)
(4.800000000000002 0.1 0.2)
(5.000000000000002 0.1 0.2)
(5.000000000000002 0.1 0.0)
)
);
normal    (0 1 0);
negateParcelsOppositeNormal    no;
removeCollected    no;
surfaceFormat    vtk;
resetOnWrite    no;
log    yes;
}

A-25-0
{
type    particleCollector;
mode    polygon;
polygons
(
(
(5.000000000000002 0.1 0.0)
(5.000000000000002 0.1 0.2)
(5.200000000000002 0.1 0.2)
(5.200000000000002 0.1 0.0)
)
);
normal    (0 1 0);
negateParcelsOppositeNormal    no;
removeCollected    no;
surfaceFormat    vtk;
resetOnWrite    no;
log    yes;
}

A-26-0
{
type    particleCollector;
mode    polygon;
polygons
(
(
(5.200000000000002 0.1 0.0)
(5.200000000000002 0.1 0.2)
(5.400000000000002 0.1 0.2)
(5.400000000000002 0.1 0.0)
)
);
normal    (0 1 0);
negateParcelsOppositeNormal    no;
removeCollected    no;
surfaceFormat    vtk;
resetOnWrite    no;
log    yes;
}

A-27-0
{
type    particleCollector;
mode    polygon;
polygons
(
(
(5.400000000000002 0.1 0.0)
(5.400000000000002 0.1 0.2)
(5.600000000000002 0.1 0.2)
(5.600000000000002 0.1 0.0)
)
);
normal    (0 1 0);
negateParcelsOppositeNormal    no;
removeCollected    no;
surfaceFormat    vtk;
resetOnWrite    no;
log    yes;
}

A-28-0
{
type    particleCollector;
mode    polygon;
polygons
(
(
(5.600000000000002 0.1 0.0)
(5.600000000000002 0.1 0.2)
(5.8000000000000025 0.1 0.2)
(5.8000000000000025 0.1 0.0)
)
);
normal    (0 1 0);
negateParcelsOppositeNormal    no;
removeCollected    no;
surfaceFormat    vtk;
resetOnWrite    no;
log    yes;
}

A-29-0
{
type    particleCollector;
mode    polygon;
polygons
(
(
(5.8000000000000025 0.1 0.0)
(5.8000000000000025 0.1 0.2)
(6.000000000000003 0.1 0.2)
(6.000000000000003 0.1 0.0)
)
);
normal    (0 1 0);
negateParcelsOppositeNormal    no;
removeCollected    no;
surfaceFormat    vtk;
resetOnWrite    no;
log    yes;
}

A-0-1
{
type    particleCollector;
mode    polygon;
polygons
(
(
(0.0 0.1 0.2)
(0.0 0.1 0.4)
(0.2 0.1 0.4)
(0.2 0.1 0.2)
)
);
normal    (0 1 0);
negateParcelsOppositeNormal    no;
removeCollected    no;
surfaceFormat    vtk;
resetOnWrite    no;
log    yes;
}

A-1-1
{
type    particleCollector;
mode    polygon;
polygons
(
(
(0.2 0.1 0.2)
(0.2 0.1 0.4)
(0.4 0.1 0.4)
(0.4 0.1 0.2)
)
);
normal    (0 1 0);
negateParcelsOppositeNormal    no;
removeCollected    no;
surfaceFormat    vtk;
resetOnWrite    no;
log    yes;
}

A-2-1
{
type    particleCollector;
mode    polygon;
polygons
(
(
(0.4 0.1 0.2)
(0.4 0.1 0.4)
(0.6000000000000001 0.1 0.4)
(0.6000000000000001 0.1 0.2)
)
);
normal    (0 1 0);
negateParcelsOppositeNormal    no;
removeCollected    no;
surfaceFormat    vtk;
resetOnWrite    no;
log    yes;
}

A-3-1
{
type    particleCollector;
mode    polygon;
polygons
(
(
(0.6000000000000001 0.1 0.2)
(0.6000000000000001 0.1 0.4)
(0.8 0.1 0.4)
(0.8 0.1 0.2)
)
);
normal    (0 1 0);
negateParcelsOppositeNormal    no;
removeCollected    no;
surfaceFormat    vtk;
resetOnWrite    no;
log    yes;
}

A-4-1
{
type    particleCollector;
mode    polygon;
polygons
(
(
(0.8 0.1 0.2)
(0.8 0.1 0.4)
(1.0 0.1 0.4)
(1.0 0.1 0.2)
)
);
normal    (0 1 0);
negateParcelsOppositeNormal    no;
removeCollected    no;
surfaceFormat    vtk;
resetOnWrite    no;
log    yes;
}

A-5-1
{
type    particleCollector;
mode    polygon;
polygons
(
(
(1.0 0.1 0.2)
(1.0 0.1 0.4)
(1.2 0.1 0.4)
(1.2 0.1 0.2)
)
);
normal    (0 1 0);
negateParcelsOppositeNormal    no;
removeCollected    no;
surfaceFormat    vtk;
resetOnWrite    no;
log    yes;
}

A-6-1
{
type    particleCollector;
mode    polygon;
polygons
(
(
(1.2 0.1 0.2)
(1.2 0.1 0.4)
(1.4 0.1 0.4)
(1.4 0.1 0.2)
)
);
normal    (0 1 0);
negateParcelsOppositeNormal    no;
removeCollected    no;
surfaceFormat    vtk;
resetOnWrite    no;
log    yes;
}

A-7-1
{
type    particleCollector;
mode    polygon;
polygons
(
(
(1.4 0.1 0.2)
(1.4 0.1 0.4)
(1.5999999999999999 0.1 0.4)
(1.5999999999999999 0.1 0.2)
)
);
normal    (0 1 0);
negateParcelsOppositeNormal    no;
removeCollected    no;
surfaceFormat    vtk;
resetOnWrite    no;
log    yes;
}

A-8-1
{
type    particleCollector;
mode    polygon;
polygons
(
(
(1.5999999999999999 0.1 0.2)
(1.5999999999999999 0.1 0.4)
(1.7999999999999998 0.1 0.4)
(1.7999999999999998 0.1 0.2)
)
);
normal    (0 1 0);
negateParcelsOppositeNormal    no;
removeCollected    no;
surfaceFormat    vtk;
resetOnWrite    no;
log    yes;
}

A-9-1
{
type    particleCollector;
mode    polygon;
polygons
(
(
(1.7999999999999998 0.1 0.2)
(1.7999999999999998 0.1 0.4)
(1.9999999999999998 0.1 0.4)
(1.9999999999999998 0.1 0.2)
)
);
normal    (0 1 0);
negateParcelsOppositeNormal    no;
removeCollected    no;
surfaceFormat    vtk;
resetOnWrite    no;
log    yes;
}

A-10-1
{
type    particleCollector;
mode    polygon;
polygons
(
(
(1.9999999999999998 0.1 0.2)
(1.9999999999999998 0.1 0.4)
(2.1999999999999997 0.1 0.4)
(2.1999999999999997 0.1 0.2)
)
);
normal    (0 1 0);
negateParcelsOppositeNormal    no;
removeCollected    no;
surfaceFormat    vtk;
resetOnWrite    no;
log    yes;
}

A-11-1
{
type    particleCollector;
mode    polygon;
polygons
(
(
(2.1999999999999997 0.1 0.2)
(2.1999999999999997 0.1 0.4)
(2.4 0.1 0.4)
(2.4 0.1 0.2)
)
);
normal    (0 1 0);
negateParcelsOppositeNormal    no;
removeCollected    no;
surfaceFormat    vtk;
resetOnWrite    no;
log    yes;
}

A-12-1
{
type    particleCollector;
mode    polygon;
polygons
(
(
(2.4 0.1 0.2)
(2.4 0.1 0.4)
(2.6 0.1 0.4)
(2.6 0.1 0.2)
)
);
normal    (0 1 0);
negateParcelsOppositeNormal    no;
removeCollected    no;
surfaceFormat    vtk;
resetOnWrite    no;
log    yes;
}

A-13-1
{
type    particleCollector;
mode    polygon;
polygons
(
(
(2.6 0.1 0.2)
(2.6 0.1 0.4)
(2.8000000000000003 0.1 0.4)
(2.8000000000000003 0.1 0.2)
)
);
normal    (0 1 0);
negateParcelsOppositeNormal    no;
removeCollected    no;
surfaceFormat    vtk;
resetOnWrite    no;
log    yes;
}

A-14-1
{
type    particleCollector;
mode    polygon;
polygons
(
(
(2.8000000000000003 0.1 0.2)
(2.8000000000000003 0.1 0.4)
(3.0000000000000004 0.1 0.4)
(3.0000000000000004 0.1 0.2)
)
);
normal    (0 1 0);
negateParcelsOppositeNormal    no;
removeCollected    no;
surfaceFormat    vtk;
resetOnWrite    no;
log    yes;
}

A-15-1
{
type    particleCollector;
mode    polygon;
polygons
(
(
(3.0000000000000004 0.1 0.2)
(3.0000000000000004 0.1 0.4)
(3.2000000000000006 0.1 0.4)
(3.2000000000000006 0.1 0.2)
)
);
normal    (0 1 0);
negateParcelsOppositeNormal    no;
removeCollected    no;
surfaceFormat    vtk;
resetOnWrite    no;
log    yes;
}

A-16-1
{
type    particleCollector;
mode    polygon;
polygons
(
(
(3.2000000000000006 0.1 0.2)
(3.2000000000000006 0.1 0.4)
(3.400000000000001 0.1 0.4)
(3.400000000000001 0.1 0.2)
)
);
normal    (0 1 0);
negateParcelsOppositeNormal    no;
removeCollected    no;
surfaceFormat    vtk;
resetOnWrite    no;
log    yes;
}

A-17-1
{
type    particleCollector;
mode    polygon;
polygons
(
(
(3.400000000000001 0.1 0.2)
(3.400000000000001 0.1 0.4)
(3.600000000000001 0.1 0.4)
(3.600000000000001 0.1 0.2)
)
);
normal    (0 1 0);
negateParcelsOppositeNormal    no;
removeCollected    no;
surfaceFormat    vtk;
resetOnWrite    no;
log    yes;
}

A-18-1
{
type    particleCollector;
mode    polygon;
polygons
(
(
(3.600000000000001 0.1 0.2)
(3.600000000000001 0.1 0.4)
(3.800000000000001 0.1 0.4)
(3.800000000000001 0.1 0.2)
)
);
normal    (0 1 0);
negateParcelsOppositeNormal    no;
removeCollected    no;
surfaceFormat    vtk;
resetOnWrite    no;
log    yes;
}

A-19-1
{
type    particleCollector;
mode    polygon;
polygons
(
(
(3.800000000000001 0.1 0.2)
(3.800000000000001 0.1 0.4)
(4.000000000000001 0.1 0.4)
(4.000000000000001 0.1 0.2)
)
);
normal    (0 1 0);
negateParcelsOppositeNormal    no;
removeCollected    no;
surfaceFormat    vtk;
resetOnWrite    no;
log    yes;
}

A-20-1
{
type    particleCollector;
mode    polygon;
polygons
(
(
(4.000000000000001 0.1 0.2)
(4.000000000000001 0.1 0.4)
(4.200000000000001 0.1 0.4)
(4.200000000000001 0.1 0.2)
)
);
normal    (0 1 0);
negateParcelsOppositeNormal    no;
removeCollected    no;
surfaceFormat    vtk;
resetOnWrite    no;
log    yes;
}

A-21-1
{
type    particleCollector;
mode    polygon;
polygons
(
(
(4.200000000000001 0.1 0.2)
(4.200000000000001 0.1 0.4)
(4.400000000000001 0.1 0.4)
(4.400000000000001 0.1 0.2)
)
);
normal    (0 1 0);
negateParcelsOppositeNormal    no;
removeCollected    no;
surfaceFormat    vtk;
resetOnWrite    no;
log    yes;
}

A-22-1
{
type    particleCollector;
mode    polygon;
polygons
(
(
(4.400000000000001 0.1 0.2)
(4.400000000000001 0.1 0.4)
(4.600000000000001 0.1 0.4)
(4.600000000000001 0.1 0.2)
)
);
normal    (0 1 0);
negateParcelsOppositeNormal    no;
removeCollected    no;
surfaceFormat    vtk;
resetOnWrite    no;
log    yes;
}

A-23-1
{
type    particleCollector;
mode    polygon;
polygons
(
(
(4.600000000000001 0.1 0.2)
(4.600000000000001 0.1 0.4)
(4.800000000000002 0.1 0.4)
(4.800000000000002 0.1 0.2)
)
);
normal    (0 1 0);
negateParcelsOppositeNormal    no;
removeCollected    no;
surfaceFormat    vtk;
resetOnWrite    no;
log    yes;
}

A-24-1
{
type    particleCollector;
mode    polygon;
polygons
(
(
(4.800000000000002 0.1 0.2)
(4.800000000000002 0.1 0.4)
(5.000000000000002 0.1 0.4)
(5.000000000000002 0.1 0.2)
)
);
normal    (0 1 0);
negateParcelsOppositeNormal    no;
removeCollected    no;
surfaceFormat    vtk;
resetOnWrite    no;
log    yes;
}

A-25-1
{
type    particleCollector;
mode    polygon;
polygons
(
(
(5.000000000000002 0.1 0.2)
(5.000000000000002 0.1 0.4)
(5.200000000000002 0.1 0.4)
(5.200000000000002 0.1 0.2)
)
);
normal    (0 1 0);
negateParcelsOppositeNormal    no;
removeCollected    no;
surfaceFormat    vtk;
resetOnWrite    no;
log    yes;
}

A-26-1
{
type    particleCollector;
mode    polygon;
polygons
(
(
(5.200000000000002 0.1 0.2)
(5.200000000000002 0.1 0.4)
(5.400000000000002 0.1 0.4)
(5.400000000000002 0.1 0.2)
)
);
normal    (0 1 0);
negateParcelsOppositeNormal    no;
removeCollected    no;
surfaceFormat    vtk;
resetOnWrite    no;
log    yes;
}

A-27-1
{
type    particleCollector;
mode    polygon;
polygons
(
(
(5.400000000000002 0.1 0.2)
(5.400000000000002 0.1 0.4)
(5.600000000000002 0.1 0.4)
(5.600000000000002 0.1 0.2)
)
);
normal    (0 1 0);
negateParcelsOppositeNormal    no;
removeCollected    no;
surfaceFormat    vtk;
resetOnWrite    no;
log    yes;
}

A-28-1
{
type    particleCollector;
mode    polygon;
polygons
(
(
(5.600000000000002 0.1 0.2)
(5.600000000000002 0.1 0.4)
(5.8000000000000025 0.1 0.4)
(5.8000000000000025 0.1 0.2)
)
);
normal    (0 1 0);
negateParcelsOppositeNormal    no;
removeCollected    no;
surfaceFormat    vtk;
resetOnWrite    no;
log    yes;
}

A-29-1
{
type    particleCollector;
mode    polygon;
polygons
(
(
(5.8000000000000025 0.1 0.2)
(5.8000000000000025 0.1 0.4)
(6.000000000000003 0.1 0.4)
(6.000000000000003 0.1 0.2)
)
);
normal    (0 1 0);
negateParcelsOppositeNormal    no;
removeCollected    no;
surfaceFormat    vtk;
resetOnWrite    no;
log    yes;
}

A-0-2
{
type    particleCollector;
mode    polygon;
polygons
(
(
(0.0 0.1 0.4)
(0.0 0.1 0.6000000000000001)
(0.2 0.1 0.6000000000000001)
(0.2 0.1 0.4000000000000001)
)
);
normal    (0 1 0);
negateParcelsOppositeNormal    no;
removeCollected    no;
surfaceFormat    vtk;
resetOnWrite    no;
log    yes;
}

A-1-2
{
type    particleCollector;
mode    polygon;
polygons
(
(
(0.2 0.1 0.4000000000000001)
(0.2 0.1 0.6000000000000001)
(0.4 0.1 0.6000000000000001)
(0.4 0.1 0.4000000000000001)
)
);
normal    (0 1 0);
negateParcelsOppositeNormal    no;
removeCollected    no;
surfaceFormat    vtk;
resetOnWrite    no;
log    yes;
}

A-2-2
{
type    particleCollector;
mode    polygon;
polygons
(
(
(0.4 0.1 0.4000000000000001)
(0.4 0.1 0.6000000000000001)
(0.6000000000000001 0.1 0.6000000000000001)
(0.6000000000000001 0.1 0.4000000000000001)
)
);
normal    (0 1 0);
negateParcelsOppositeNormal    no;
removeCollected    no;
surfaceFormat    vtk;
resetOnWrite    no;
log    yes;
}

A-3-2
{
type    particleCollector;
mode    polygon;
polygons
(
(
(0.6000000000000001 0.1 0.4000000000000001)
(0.6000000000000001 0.1 0.6000000000000001)
(0.8 0.1 0.6000000000000001)
(0.8 0.1 0.4000000000000001)
)
);
normal    (0 1 0);
negateParcelsOppositeNormal    no;
removeCollected    no;
surfaceFormat    vtk;
resetOnWrite    no;
log    yes;
}

A-4-2
{
type    particleCollector;
mode    polygon;
polygons
(
(
(0.8 0.1 0.4000000000000001)
(0.8 0.1 0.6000000000000001)
(1.0 0.1 0.6000000000000001)
(1.0 0.1 0.4000000000000001)
)
);
normal    (0 1 0);
negateParcelsOppositeNormal    no;
removeCollected    no;
surfaceFormat    vtk;
resetOnWrite    no;
log    yes;
}

A-5-2
{
type    particleCollector;
mode    polygon;
polygons
(
(
(1.0 0.1 0.4000000000000001)
(1.0 0.1 0.6000000000000001)
(1.2 0.1 0.6000000000000001)
(1.2 0.1 0.4000000000000001)
)
);
normal    (0 1 0);
negateParcelsOppositeNormal    no;
removeCollected    no;
surfaceFormat    vtk;
resetOnWrite    no;
log    yes;
}

A-6-2
{
type    particleCollector;
mode    polygon;
polygons
(
(
(1.2 0.1 0.4000000000000001)
(1.2 0.1 0.6000000000000001)
(1.4 0.1 0.6000000000000001)
(1.4 0.1 0.4000000000000001)
)
);
normal    (0 1 0);
negateParcelsOppositeNormal    no;
removeCollected    no;
surfaceFormat    vtk;
resetOnWrite    no;
log    yes;
}

A-7-2
{
type    particleCollector;
mode    polygon;
polygons
(
(
(1.4 0.1 0.4000000000000001)
(1.4 0.1 0.6000000000000001)
(1.5999999999999999 0.1 0.6000000000000001)
(1.5999999999999999 0.1 0.4000000000000001)
)
);
normal    (0 1 0);
negateParcelsOppositeNormal    no;
removeCollected    no;
surfaceFormat    vtk;
resetOnWrite    no;
log    yes;
}

A-8-2
{
type    particleCollector;
mode    polygon;
polygons
(
(
(1.5999999999999999 0.1 0.4000000000000001)
(1.5999999999999999 0.1 0.6000000000000001)
(1.7999999999999998 0.1 0.6000000000000001)
(1.7999999999999998 0.1 0.4000000000000001)
)
);
normal    (0 1 0);
negateParcelsOppositeNormal    no;
removeCollected    no;
surfaceFormat    vtk;
resetOnWrite    no;
log    yes;
}

A-9-2
{
type    particleCollector;
mode    polygon;
polygons
(
(
(1.7999999999999998 0.1 0.4000000000000001)
(1.7999999999999998 0.1 0.6000000000000001)
(1.9999999999999998 0.1 0.6000000000000001)
(1.9999999999999998 0.1 0.4000000000000001)
)
);
normal    (0 1 0);
negateParcelsOppositeNormal    no;
removeCollected    no;
surfaceFormat    vtk;
resetOnWrite    no;
log    yes;
}

A-10-2
{
type    particleCollector;
mode    polygon;
polygons
(
(
(1.9999999999999998 0.1 0.4000000000000001)
(1.9999999999999998 0.1 0.6000000000000001)
(2.1999999999999997 0.1 0.6000000000000001)
(2.1999999999999997 0.1 0.4000000000000001)
)
);
normal    (0 1 0);
negateParcelsOppositeNormal    no;
removeCollected    no;
surfaceFormat    vtk;
resetOnWrite    no;
log    yes;
}

A-11-2
{
type    particleCollector;
mode    polygon;
polygons
(
(
(2.1999999999999997 0.1 0.4000000000000001)
(2.1999999999999997 0.1 0.6000000000000001)
(2.4 0.1 0.6000000000000001)
(2.4 0.1 0.4000000000000001)
)
);
normal    (0 1 0);
negateParcelsOppositeNormal    no;
removeCollected    no;
surfaceFormat    vtk;
resetOnWrite    no;
log    yes;
}

A-12-2
{
type    particleCollector;
mode    polygon;
polygons
(
(
(2.4 0.1 0.4000000000000001)
(2.4 0.1 0.6000000000000001)
(2.6 0.1 0.6000000000000001)
(2.6 0.1 0.4000000000000001)
)
);
normal    (0 1 0);
negateParcelsOppositeNormal    no;
removeCollected    no;
surfaceFormat    vtk;
resetOnWrite    no;
log    yes;
}

A-13-2
{
type    particleCollector;
mode    polygon;
polygons
(
(
(2.6 0.1 0.4000000000000001)
(2.6 0.1 0.6000000000000001)
(2.8000000000000003 0.1 0.6000000000000001)
(2.8000000000000003 0.1 0.4000000000000001)
)
);
normal    (0 1 0);
negateParcelsOppositeNormal    no;
removeCollected    no;
surfaceFormat    vtk;
resetOnWrite    no;
log    yes;
}

A-14-2
{
type    particleCollector;
mode    polygon;
polygons
(
(
(2.8000000000000003 0.1 0.4000000000000001)
(2.8000000000000003 0.1 0.6000000000000001)
(3.0000000000000004 0.1 0.6000000000000001)
(3.0000000000000004 0.1 0.4000000000000001)
)
);
normal    (0 1 0);
negateParcelsOppositeNormal    no;
removeCollected    no;
surfaceFormat    vtk;
resetOnWrite    no;
log    yes;
}

A-15-2
{
type    particleCollector;
mode    polygon;
polygons
(
(
(3.0000000000000004 0.1 0.4000000000000001)
(3.0000000000000004 0.1 0.6000000000000001)
(3.2000000000000006 0.1 0.6000000000000001)
(3.2000000000000006 0.1 0.4000000000000001)
)
);
normal    (0 1 0);
negateParcelsOppositeNormal    no;
removeCollected    no;
surfaceFormat    vtk;
resetOnWrite    no;
log    yes;
}

A-16-2
{
type    particleCollector;
mode    polygon;
polygons
(
(
(3.2000000000000006 0.1 0.4000000000000001)
(3.2000000000000006 0.1 0.6000000000000001)
(3.400000000000001 0.1 0.6000000000000001)
(3.400000000000001 0.1 0.4000000000000001)
)
);
normal    (0 1 0);
negateParcelsOppositeNormal    no;
removeCollected    no;
surfaceFormat    vtk;
resetOnWrite    no;
log    yes;
}

A-17-2
{
type    particleCollector;
mode    polygon;
polygons
(
(
(3.400000000000001 0.1 0.4000000000000001)
(3.400000000000001 0.1 0.6000000000000001)
(3.600000000000001 0.1 0.6000000000000001)
(3.600000000000001 0.1 0.4000000000000001)
)
);
normal    (0 1 0);
negateParcelsOppositeNormal    no;
removeCollected    no;
surfaceFormat    vtk;
resetOnWrite    no;
log    yes;
}

A-18-2
{
type    particleCollector;
mode    polygon;
polygons
(
(
(3.600000000000001 0.1 0.4000000000000001)
(3.600000000000001 0.1 0.6000000000000001)
(3.800000000000001 0.1 0.6000000000000001)
(3.800000000000001 0.1 0.4000000000000001)
)
);
normal    (0 1 0);
negateParcelsOppositeNormal    no;
removeCollected    no;
surfaceFormat    vtk;
resetOnWrite    no;
log    yes;
}

A-19-2
{
type    particleCollector;
mode    polygon;
polygons
(
(
(3.800000000000001 0.1 0.4000000000000001)
(3.800000000000001 0.1 0.6000000000000001)
(4.000000000000001 0.1 0.6000000000000001)
(4.000000000000001 0.1 0.4000000000000001)
)
);
normal    (0 1 0);
negateParcelsOppositeNormal    no;
removeCollected    no;
surfaceFormat    vtk;
resetOnWrite    no;
log    yes;
}

A-20-2
{
type    particleCollector;
mode    polygon;
polygons
(
(
(4.000000000000001 0.1 0.4000000000000001)
(4.000000000000001 0.1 0.6000000000000001)
(4.200000000000001 0.1 0.6000000000000001)
(4.200000000000001 0.1 0.4000000000000001)
)
);
normal    (0 1 0);
negateParcelsOppositeNormal    no;
removeCollected    no;
surfaceFormat    vtk;
resetOnWrite    no;
log    yes;
}

A-21-2
{
type    particleCollector;
mode    polygon;
polygons
(
(
(4.200000000000001 0.1 0.4000000000000001)
(4.200000000000001 0.1 0.6000000000000001)
(4.400000000000001 0.1 0.6000000000000001)
(4.400000000000001 0.1 0.4000000000000001)
)
);
normal    (0 1 0);
negateParcelsOppositeNormal    no;
removeCollected    no;
surfaceFormat    vtk;
resetOnWrite    no;
log    yes;
}

A-22-2
{
type    particleCollector;
mode    polygon;
polygons
(
(
(4.400000000000001 0.1 0.4000000000000001)
(4.400000000000001 0.1 0.6000000000000001)
(4.600000000000001 0.1 0.6000000000000001)
(4.600000000000001 0.1 0.4000000000000001)
)
);
normal    (0 1 0);
negateParcelsOppositeNormal    no;
removeCollected    no;
surfaceFormat    vtk;
resetOnWrite    no;
log    yes;
}

A-23-2
{
type    particleCollector;
mode    polygon;
polygons
(
(
(4.600000000000001 0.1 0.4000000000000001)
(4.600000000000001 0.1 0.6000000000000001)
(4.800000000000002 0.1 0.6000000000000001)
(4.800000000000002 0.1 0.4000000000000001)
)
);
normal    (0 1 0);
negateParcelsOppositeNormal    no;
removeCollected    no;
surfaceFormat    vtk;
resetOnWrite    no;
log    yes;
}

A-24-2
{
type    particleCollector;
mode    polygon;
polygons
(
(
(4.800000000000002 0.1 0.4000000000000001)
(4.800000000000002 0.1 0.6000000000000001)
(5.000000000000002 0.1 0.6000000000000001)
(5.000000000000002 0.1 0.4000000000000001)
)
);
normal    (0 1 0);
negateParcelsOppositeNormal    no;
removeCollected    no;
surfaceFormat    vtk;
resetOnWrite    no;
log    yes;
}

A-25-2
{
type    particleCollector;
mode    polygon;
polygons
(
(
(5.000000000000002 0.1 0.4000000000000001)
(5.000000000000002 0.1 0.6000000000000001)
(5.200000000000002 0.1 0.6000000000000001)
(5.200000000000002 0.1 0.4000000000000001)
)
);
normal    (0 1 0);
negateParcelsOppositeNormal    no;
removeCollected    no;
surfaceFormat    vtk;
resetOnWrite    no;
log    yes;
}

A-26-2
{
type    particleCollector;
mode    polygon;
polygons
(
(
(5.200000000000002 0.1 0.4000000000000001)
(5.200000000000002 0.1 0.6000000000000001)
(5.400000000000002 0.1 0.6000000000000001)
(5.400000000000002 0.1 0.4000000000000001)
)
);
normal    (0 1 0);
negateParcelsOppositeNormal    no;
removeCollected    no;
surfaceFormat    vtk;
resetOnWrite    no;
log    yes;
}

A-27-2
{
type    particleCollector;
mode    polygon;
polygons
(
(
(5.400000000000002 0.1 0.4000000000000001)
(5.400000000000002 0.1 0.6000000000000001)
(5.600000000000002 0.1 0.6000000000000001)
(5.600000000000002 0.1 0.4000000000000001)
)
);
normal    (0 1 0);
negateParcelsOppositeNormal    no;
removeCollected    no;
surfaceFormat    vtk;
resetOnWrite    no;
log    yes;
}

A-28-2
{
type    particleCollector;
mode    polygon;
polygons
(
(
(5.600000000000002 0.1 0.4000000000000001)
(5.600000000000002 0.1 0.6000000000000001)
(5.8000000000000025 0.1 0.6000000000000001)
(5.8000000000000025 0.1 0.4000000000000001)
)
);
normal    (0 1 0);
negateParcelsOppositeNormal    no;
removeCollected    no;
surfaceFormat    vtk;
resetOnWrite    no;
log    yes;
}

A-29-2
{
type    particleCollector;
mode    polygon;
polygons
(
(
(5.8000000000000025 0.1 0.4000000000000001)
(5.8000000000000025 0.1 0.6000000000000001)
(6.000000000000003 0.1 0.6000000000000001)
(6.000000000000003 0.1 0.4000000000000001)
)
);
normal    (0 1 0);
negateParcelsOppositeNormal    no;
removeCollected    no;
surfaceFormat    vtk;
resetOnWrite    no;
log    yes;
}

A-0-3
{
type    particleCollector;
mode    polygon;
polygons
(
(
(0.0 0.1 0.6000000000000001)
(0.0 0.1 0.8)
(0.2 0.1 0.8)
(0.2 0.1 0.6000000000000001)
)
);
normal    (0 1 0);
negateParcelsOppositeNormal    no;
removeCollected    no;