/*--------------------------------*- C++ -*----------------------------------*\
| =========                 |                                                 |
| \\      /  F ield         | OpenFOAM: The Open Source CFD Toolbox           |
|  \\    /   O peration     | Version:  v2006                                 |
|   \\  /    A nd           | Website:  www.openfoam.com                      |
|    \\/     M anipulation  |                                                 |
\*---------------------------------------------------------------------------*/
FoamFile
{
    version     2.0;
    format      ascii;
    class       dictionary;
    location    "constant";
    object      CollectorFaces;
}
// * * * * * * * * * * * * * * * * * * * * * * * * * * * * * * * * * * * * * //

A-0-0
{
type    particleCollector;
mode    polygon;
polygons
(
(
(0.5 0.1 0.0)
(0.5 0.1 0.2)
(0.7 0.1 0.2)
(0.7 0.1 0.0)
)
);
normal    (0 1 0);
negateParcelsOppositeNormal    no;
removeCollected    no;
surfaceFormat    vtk;
resetOnWrite    no;
log    yes;
}

A-1-0
{
type    particleCollector;
mode    polygon;
polygons
(
(
(0.7 0.1 0.0)
(0.7 0.1 0.2)
(0.8999999999999999 0.1 0.2)
(0.8999999999999999 0.1 0.0)
)
);
normal    (0 1 0);
negateParcelsOppositeNormal    no;
removeCollected    no;
surfaceFormat    vtk;
resetOnWrite    no;
log    yes;
}

A-2-0
{
type    particleCollector;
mode    polygon;
polygons
(
(
(0.8999999999999999 0.1 0.0)
(0.8999999999999999 0.1 0.2)
(1.0999999999999999 0.1 0.2)
(1.0999999999999999 0.1 0.0)
)
);
normal    (0 1 0);
negateParcelsOppositeNormal    no;
removeCollected    no;
surfaceFormat    vtk;
resetOnWrite    no;
log    yes;
}

A-3-0
{
type    particleCollector;
mode    polygon;
polygons
(
(
(1.0999999999999999 0.1 0.0)
(1.0999999999999999 0.1 0.2)
(1.2999999999999998 0.1 0.2)
(1.2999999999999998 0.1 0.0)
)
);
normal    (0 1 0);
negateParcelsOppositeNormal    no;
removeCollected    no;
surfaceFormat    vtk;
resetOnWrite    no;
log    yes;
}

A-4-0
{
type    particleCollector;
mode    polygon;
polygons
(
(
(1.2999999999999998 0.1 0.0)
(1.2999999999999998 0.1 0.2)
(1.4999999999999998 0.1 0.2)
(1.4999999999999998 0.1 0.0)
)
);
normal    (0 1 0);
negateParcelsOppositeNormal    no;
removeCollected    no;
surfaceFormat    vtk;
resetOnWrite    no;
log    yes;
}

A-5-0
{
type    particleCollector;
mode    polygon;
polygons
(
(
(1.4999999999999998 0.1 0.0)
(1.4999999999999998 0.1 0.2)
(1.6999999999999997 0.1 0.2)
(1.6999999999999997 0.1 0.0)
)
);
normal    (0 1 0);
negateParcelsOppositeNormal    no;
removeCollected    no;
surfaceFormat    vtk;
resetOnWrite    no;
log    yes;
}

A-6-0
{
type    particleCollector;
mode    polygon;
polygons
(
(
(1.6999999999999997 0.1 0.0)
(1.6999999999999997 0.1 0.2)
(1.8999999999999997 0.1 0.2)
(1.8999999999999997 0.1 0.0)
)
);
normal    (0 1 0);
negateParcelsOppositeNormal    no;
removeCollected    no;
surfaceFormat    vtk;
resetOnWrite    no;
log    yes;
}

A-7-0
{
type    particleCollector;
mode    polygon;
polygons
(
(
(1.8999999999999997 0.1 0.0)
(1.8999999999999997 0.1 0.2)
(2.0999999999999996 0.1 0.2)
(2.0999999999999996 0.1 0.0)
)
);
normal    (0 1 0);
negateParcelsOppositeNormal    no;
removeCollected    no;
surfaceFormat    vtk;
resetOnWrite    no;
log    yes;
}

A-8-0
{
type    particleCollector;
mode    polygon;
polygons
(
(
(2.0999999999999996 0.1 0.0)
(2.0999999999999996 0.1 0.2)
(2.3 0.1 0.2)
(2.3 0.1 0.0)
)
);
normal    (0 1 0);
negateParcelsOppositeNormal    no;
removeCollected    no;
surfaceFormat    vtk;
resetOnWrite    no;
log    yes;
}

A-9-0
{
type    particleCollector;
mode    polygon;
polygons
(
(
(2.3 0.1 0.0)
(2.3 0.1 0.2)
(2.5 0.1 0.2)
(2.5 0.1 0.0)
)
);
normal    (0 1 0);
negateParcelsOppositeNormal    no;
removeCollected    no;
surfaceFormat    vtk;
resetOnWrite    no;
log    yes;
}

A-10-0
{
type    particleCollector;
mode    polygon;
polygons
(
(
(2.5 0.1 0.0)
(2.5 0.1 0.2)
(2.7 0.1 0.2)
(2.7 0.1 0.0)
)
);
normal    (0 1 0);
negateParcelsOppositeNormal    no;
removeCollected    no;
surfaceFormat    vtk;
resetOnWrite    no;
log    yes;
}

A-11-0
{
type    particleCollector;
mode    polygon;
polygons
(
(
(2.7 0.1 0.0)
(2.7 0.1 0.2)
(2.9000000000000004 0.1 0.2)
(2.9000000000000004 0.1 0.0)
)
);
normal    (0 1 0);
negateParcelsOppositeNormal    no;
removeCollected    no;
surfaceFormat    vtk;
resetOnWrite    no;
log    yes;
}

A-12-0
{
type    particleCollector;
mode    polygon;
polygons
(
(
(2.9000000000000004 0.1 0.0)
(2.9000000000000004 0.1 0.2)
(3.1000000000000005 0.1 0.2)
(3.1000000000000005 0.1 0.0)
)
);
normal    (0 1 0);
negateParcelsOppositeNormal    no;
removeCollected    no;
surfaceFormat    vtk;
resetOnWrite    no;
log    yes;
}

A-13-0
{
type    particleCollector;
mode    polygon;
polygons
(
(
(3.1000000000000005 0.1 0.0)
(3.1000000000000005 0.1 0.2)
(3.3000000000000007 0.1 0.2)
(3.3000000000000007 0.1 0.0)
)
);
normal    (0 1 0);
negateParcelsOppositeNormal    no;
removeCollected    no;
surfaceFormat    vtk;
resetOnWrite    no;
log    yes;
}

A-14-0
{
type    particleCollector;
mode    polygon;
polygons
(
(
(3.3000000000000007 0.1 0.0)
(3.3000000000000007 0.1 0.2)
(3.500000000000001 0.1 0.2)
(3.500000000000001 0.1 0.0)
)
);
normal    (0 1 0);
negateParcelsOppositeNormal    no;
removeCollected    no;
surfaceFormat    vtk;
resetOnWrite    no;
log    yes;
}

A-15-0
{
type    particleCollector;
mode    polygon;
polygons
(
(
(3.500000000000001 0.1 0.0)
(3.500000000000001 0.1 0.2)
(3.700000000000001 0.1 0.2)
(3.700000000000001 0.1 0.0)
)
);
normal    (0 1 0);
negateParcelsOppositeNormal    no;
removeCollected    no;
surfaceFormat    vtk;
resetOnWrite    no;
log    yes;
}

A-16-0
{
type    particleCollector;
mode    polygon;
polygons
(
(
(3.700000000000001 0.1 0.0)
(3.700000000000001 0.1 0.2)
(3.9000000000000012 0.1 0.2)
(3.9000000000000012 0.1 0.0)
)
);
normal    (0 1 0);
negateParcelsOppositeNormal    no;
removeCollected    no;
surfaceFormat    vtk;
resetOnWrite    no;
log    yes;
}

A-17-0
{
type    particleCollector;
mode    polygon;
polygons
(
(
(3.9000000000000012 0.1 0.0)
(3.9000000000000012 0.1 0.2)
(4.100000000000001 0.1 0.2)
(4.100000000000001 0.1 0.0)
)
);
normal    (0 1 0);
negateParcelsOppositeNormal    no;
removeCollected    no;
surfaceFormat    vtk;
resetOnWrite    no;
log    yes;
}

A-18-0
{
type    particleCollector;
mode    polygon;
polygons
(
(
(4.100000000000001 0.1 0.0)
(4.100000000000001 0.1 0.2)
(4.300000000000002 0.1 0.2)
(4.300000000000002 0.1 0.0)
)
);
normal    (0 1 0);
negateParcelsOppositeNormal    no;
removeCollected    no;
surfaceFormat    vtk;
resetOnWrite    no;
log    yes;
}

A-19-0
{
type    particleCollector;
mode    polygon;
polygons
(
(
(4.300000000000002 0.1 0.0)
(4.300000000000002 0.1 0.2)
(4.500000000000002 0.1 0.2)
(4.500000000000002 0.1 0.0)
)
);
normal    (0 1 0);
negateParcelsOppositeNormal    no;
removeCollected    no;
surfaceFormat    vtk;
resetOnWrite    no;
log    yes;
}

A-20-0
{
type    particleCollector;
mode    polygon;
polygons
(
(
(4.500000000000002 0.1 0.0)
(4.500000000000002 0.1 0.2)
(4.700000000000002 0.1 0.2)
(4.700000000000002 0.1 0.0)
)
);
normal    (0 1 0);
negateParcelsOppositeNormal    no;
removeCollected    no;
surfaceFormat    vtk;
resetOnWrite    no;
log    yes;
}

A-21-0
{
type    particleCollector;
mode    polygon;
polygons
(
(
(4.700000000000002 0.1 0.0)
(4.700000000000002 0.1 0.2)
(4.900000000000002 0.1 0.2)
(4.900000000000002 0.1 0.0)
)
);
normal    (0 1 0);
negateParcelsOppositeNormal    no;
removeCollected    no;
surfaceFormat    vtk;
resetOnWrite    no;
log    yes;
}

A-22-0
{
type    particleCollector;
mode    polygon;
polygons
(
(
(4.900000000000002 0.1 0.0)
(4.900000000000002 0.1 0.2)
(5.100000000000002 0.1 0.2)
(5.100000000000002 0.1 0.0)
)
);
normal    (0 1 0);
negateParcelsOppositeNormal    no;
removeCollected    no;
surfaceFormat    vtk;
resetOnWrite    no;
log    yes;
}

A-23-0
{
type    particleCollector;
mode    polygon;
polygons
(
(
(5.100000000000002 0.1 0.0)
(5.100000000000002 0.1 0.2)
(5.3000000000000025 0.1 0.2)
(5.3000000000000025 0.1 0.0)
)
);
normal    (0 1 0);
negateParcelsOppositeNormal    no;
removeCollected    no;
surfaceFormat    vtk;
resetOnWrite    no;
log    yes;
}

A-24-0
{
type    particleCollector;
mode    polygon;
polygons
(
(
(5.3000000000000025 0.1 0.0)
(5.3000000000000025 0.1 0.2)
(5.500000000000003 0.1 0.2)
(5.500000000000003 0.1 0.0)
)
);
normal    (0 1 0);
negateParcelsOppositeNormal    no;
removeCollected    no;
surfaceFormat    vtk;
resetOnWrite    no;
log    yes;
}

A-25-0
{
type    particleCollector;
mode    polygon;
polygons
(
(
(5.500000000000003 0.1 0.0)
(5.500000000000003 0.1 0.2)
(5.700000000000003 0.1 0.2)
(5.700000000000003 0.1 0.0)
)
);
normal    (0 1 0);
negateParcelsOppositeNormal    no;
removeCollected    no;
surfaceFormat    vtk;
resetOnWrite    no;
log    yes;
}

A-26-0
{
type    particleCollector;
mode    polygon;
polygons
(
(
(5.700000000000003 0.1 0.0)
(5.700000000000003 0.1 0.2)
(5.900000000000003 0.1 0.2)
(5.900000000000003 0.1 0.0)
)
);
normal    (0 1 0);
negateParcelsOppositeNormal    no;
removeCollected    no;
surfaceFormat    vtk;
resetOnWrite    no;
log    yes;
}

A-27-0
{
type    particleCollector;
mode    polygon;
polygons
(
(
(5.900000000000003 0.1 0.0)
(5.900000000000003 0.1 0.2)
(6.100000000000003 0.1 0.2)
(6.100000000000003 0.1 0.0)
)
);
normal    (0 1 0);
negateParcelsOppositeNormal    no;
removeCollected    no;
surfaceFormat    vtk;
resetOnWrite    no;
log    yes;
}

A-28-0
{
type    particleCollector;
mode    polygon;
polygons
(
(
(6.100000000000003 0.1 0.0)
(6.100000000000003 0.1 0.2)
(6.300000000000003 0.1 0.2)
(6.300000000000003 0.1 0.0)
)
);
normal    (0 1 0);
negateParcelsOppositeNormal    no;
removeCollected    no;
surfaceFormat    vtk;
resetOnWrite    no;
log    yes;
}

A-29-0
{
type    particleCollector;
mode    polygon;
polygons
(
(
(6.300000000000003 0.1 0.0)
(6.300000000000003 0.1 0.2)
(6.5000000000000036 0.1 0.2)
(6.5000000000000036 0.1 0.0)
)
);
normal    (0 1 0);
negateParcelsOppositeNormal    no;
removeCollected    no;
surfaceFormat    vtk;
resetOnWrite    no;
log    yes;
}

A-0-1
{
type    particleCollector;
mode    polygon;
polygons
(
(
(0.5 0.1 0.2)
(0.5 0.1 0.4)
(0.7 0.1 0.4)
(0.7 0.1 0.2)
)
);
normal    (0 1 0);
negateParcelsOppositeNormal    no;
removeCollected    no;
surfaceFormat    vtk;
resetOnWrite    no;
log    yes;
}

A-1-1
{
type    particleCollector;
mode    polygon;
polygons
(
(
(0.7 0.1 0.2)
(0.7 0.1 0.4)
(0.8999999999999999 0.1 0.4)
(0.8999999999999999 0.1 0.2)
)
);
normal    (0 1 0);
negateParcelsOppositeNormal    no;
removeCollected    no;
surfaceFormat    vtk;
resetOnWrite    no;
log    yes;
}

A-2-1
{
type    particleCollector;
mode    polygon;
polygons
(
(
(0.8999999999999999 0.1 0.2)
(0.8999999999999999 0.1 0.4)
(1.0999999999999999 0.1 0.4)
(1.0999999999999999 0.1 0.2)
)
);
normal    (0 1 0);
negateParcelsOppositeNormal    no;
removeCollected    no;
surfaceFormat    vtk;
resetOnWrite    no;
log    yes;
}

A-3-1
{
type    particleCollector;
mode    polygon;
polygons
(
(
(1.0999999999999999 0.1 0.2)
(1.0999999999999999 0.1 0.4)
(1.2999999999999998 0.1 0.4)
(1.2999999999999998 0.1 0.2)
)
);
normal    (0 1 0);
negateParcelsOppositeNormal    no;
removeCollected    no;
surfaceFormat    vtk;
resetOnWrite    no;
log    yes;
}

A-4-1
{
type    particleCollector;
mode    polygon;
polygons
(
(
(1.2999999999999998 0.1 0.2)
(1.2999999999999998 0.1 0.4)
(1.4999999999999998 0.1 0.4)
(1.4999999999999998 0.1 0.2)
)
);
normal    (0 1 0);
negateParcelsOppositeNormal    no;
removeCollected    no;
surfaceFormat    vtk;
resetOnWrite    no;
log    yes;
}

A-5-1
{
type    particleCollector;
mode    polygon;
polygons
(
(
(1.4999999999999998 0.1 0.2)
(1.4999999999999998 0.1 0.4)
(1.6999999999999997 0.1 0.4)
(1.6999999999999997 0.1 0.2)
)
);
normal    (0 1 0);
negateParcelsOppositeNormal    no;
removeCollected    no;
surfaceFormat    vtk;
resetOnWrite    no;
log    yes;
}

A-6-1
{
type    particleCollector;
mode    polygon;
polygons
(
(
(1.6999999999999997 0.1 0.2)
(1.6999999999999997 0.1 0.4)
(1.8999999999999997 0.1 0.4)
(1.8999999999999997 0.1 0.2)
)
);
normal    (0 1 0);
negateParcelsOppositeNormal    no;
removeCollected    no;
surfaceFormat    vtk;
resetOnWrite    no;
log    yes;
}

A-7-1
{
type    particleCollector;
mode    polygon;
polygons
(
(
(1.8999999999999997 0.1 0.2)
(1.8999999999999997 0.1 0.4)
(2.0999999999999996 0.1 0.4)
(2.0999999999999996 0.1 0.2)
)
);
normal    (0 1 0);
negateParcelsOppositeNormal    no;
removeCollected    no;
surfaceFormat    vtk;
resetOnWrite    no;
log    yes;
}

A-8-1
{
type    particleCollector;
mode    polygon;
polygons
(
(
(2.0999999999999996 0.1 0.2)
(2.0999999999999996 0.1 0.4)
(2.3 0.1 0.4)
(2.3 0.1 0.2)
)
);
normal    (0 1 0);
negateParcelsOppositeNormal    no;
removeCollected    no;
surfaceFormat    vtk;
resetOnWrite    no;
log    yes;
}

A-9-1
{
type    particleCollector;
mode    polygon;
polygons
(
(
(2.3 0.1 0.2)
(2.3 0.1 0.4)
(2.5 0.1 0.4)
(2.5 0.1 0.2)
)
);
normal    (0 1 0);
negateParcelsOppositeNormal    no;
removeCollected    no;
surfaceFormat    vtk;
resetOnWrite    no;
log    yes;
}

A-10-1
{
type    particleCollector;
mode    polygon;
polygons
(
(
(2.5 0.1 0.2)
(2.5 0.1 0.4)
(2.7 0.1 0.4)
(2.7 0.1 0.2)
)
);
normal    (0 1 0);
negateParcelsOppositeNormal    no;
removeCollected    no;
surfaceFormat    vtk;
resetOnWrite    no;
log    yes;
}

A-11-1
{
type    particleCollector;
mode    polygon;
polygons
(
(
(2.7 0.1 0.2)
(2.7 0.1 0.4)
(2.9000000000000004 0.1 0.4)
(2.9000000000000004 0.1 0.2)
)
);
normal    (0 1 0);
negateParcelsOppositeNormal    no;
removeCollected    no;
surfaceFormat    vtk;
resetOnWrite    no;
log    yes;
}

A-12-1
{
type    particleCollector;
mode    polygon;
polygons
(
(
(2.9000000000000004 0.1 0.2)
(2.9000000000000004 0.1 0.4)
(3.1000000000000005 0.1 0.4)
(3.1000000000000005 0.1 0.2)
)
);
normal    (0 1 0);
negateParcelsOppositeNormal    no;
removeCollected    no;
surfaceFormat    vtk;
resetOnWrite    no;
log    yes;
}

A-13-1
{
type    particleCollector;
mode    polygon;
polygons
(
(
(3.1000000000000005 0.1 0.2)
(3.1000000000000005 0.1 0.4)
(3.3000000000000007 0.1 0.4)
(3.3000000000000007 0.1 0.2)
)
);
normal    (0 1 0);
negateParcelsOppositeNormal    no;
removeCollected    no;
surfaceFormat    vtk;
resetOnWrite    no;
log    yes;
}

A-14-1
{
type    particleCollector;
mode    polygon;
polygons
(
(
(3.3000000000000007 0.1 0.2)
(3.3000000000000007 0.1 0.4)
(3.500000000000001 0.1 0.4)
(3.500000000000001 0.1 0.2)
)
);
normal    (0 1 0);
negateParcelsOppositeNormal    no;
removeCollected    no;
surfaceFormat    vtk;
resetOnWrite    no;
log    yes;
}

A-15-1
{
type    particleCollector;
mode    polygon;
polygons
(
(
(3.500000000000001 0.1 0.2)
(3.500000000000001 0.1 0.4)
(3.700000000000001 0.1 0.4)
(3.700000000000001 0.1 0.2)
)
);
normal    (0 1 0);
negateParcelsOppositeNormal    no;
removeCollected    no;
surfaceFormat    vtk;
resetOnWrite    no;
log    yes;
}

A-16-1
{
type    particleCollector;
mode    polygon;
polygons
(
(
(3.700000000000001 0.1 0.2)
(3.700000000000001 0.1 0.4)
(3.9000000000000012 0.1 0.4)
(3.9000000000000012 0.1 0.2)
)
);
normal    (0 1 0);
negateParcelsOppositeNormal    no;
removeCollected    no;
surfaceFormat    vtk;
resetOnWrite    no;
log    yes;
}

A-17-1
{
type    particleCollector;
mode    polygon;
polygons
(
(
(3.9000000000000012 0.1 0.2)
(3.9000000000000012 0.1 0.4)
(4.100000000000001 0.1 0.4)
(4.100000000000001 0.1 0.2)
)
);
normal    (0 1 0);
negateParcelsOppositeNormal    no;
removeCollected    no;
surfaceFormat    vtk;
resetOnWrite    no;
log    yes;
}

A-18-1
{
type    particleCollector;
mode    polygon;
polygons
(
(
(4.100000000000001 0.1 0.2)
(4.100000000000001 0.1 0.4)
(4.300000000000002 0.1 0.4)
(4.300000000000002 0.1 0.2)
)
);
normal    (0 1 0);
negateParcelsOppositeNormal    no;
removeCollected    no;
surfaceFormat    vtk;
resetOnWrite    no;
log    yes;
}

A-19-1
{
type    particleCollector;
mode    polygon;
polygons
(
(
(4.300000000000002 0.1 0.2)
(4.300000000000002 0.1 0.4)
(4.500000000000002 0.1 0.4)
(4.500000000000002 0.1 0.2)
)
);
normal    (0 1 0);
negateParcelsOppositeNormal    no;
removeCollected    no;
surfaceFormat    vtk;
resetOnWrite    no;
log    yes;
}

A-20-1
{
type    particleCollector;
mode    polygon;
polygons
(
(
(4.500000000000002 0.1 0.2)
(4.500000000000002 0.1 0.4)
(4.700000000000002 0.1 0.4)
(4.700000000000002 0.1 0.2)
)
);
normal    (0 1 0);
negateParcelsOppositeNormal    no;
removeCollected    no;
surfaceFormat    vtk;
resetOnWrite    no;
log    yes;
}

A-21-1
{
type    particleCollector;
mode    polygon;
polygons
(
(
(4.700000000000002 0.1 0.2)
(4.700000000000002 0.1 0.4)
(4.900000000000002 0.1 0.4)
(4.900000000000002 0.1 0.2)
)
);
normal    (0 1 0);
negateParcelsOppositeNormal    no;
removeCollected    no;
surfaceFormat    vtk;
resetOnWrite    no;
log    yes;
}

A-22-1
{
type    particleCollector;
mode    polygon;
polygons
(
(
(4.900000000000002 0.1 0.2)
(4.900000000000002 0.1 0.4)
(5.100000000000002 0.1 0.4)
(5.100000000000002 0.1 0.2)
)
);
normal    (0 1 0);
negateParcelsOppositeNormal    no;
removeCollected    no;
surfaceFormat    vtk;
resetOnWrite    no;
log    yes;
}

A-23-1
{
type    particleCollector;
mode    polygon;
polygons
(
(
(5.100000000000002 0.1 0.2)
(5.100000000000002 0.1 0.4)
(5.3000000000000025 0.1 0.4)
(5.3000000000000025 0.1 0.2)
)
);
normal    (0 1 0);
negateParcelsOppositeNormal    no;
removeCollected    no;
surfaceFormat    vtk;
resetOnWrite    no;
log    yes;
}

A-24-1
{
type    particleCollector;
mode    polygon;
polygons
(
(
(5.3000000000000025 0.1 0.2)
(5.3000000000000025 0.1 0.4)
(5.500000000000003 0.1 0.4)
(5.500000000000003 0.1 0.2)
)
);
normal    (0 1 0);
negateParcelsOppositeNormal    no;
removeCollected    no;
surfaceFormat    vtk;
resetOnWrite    no;
log    yes;
}

A-25-1
{
type    particleCollector;
mode    polygon;
polygons
(
(
(5.500000000000003 0.1 0.2)
(5.500000000000003 0.1 0.4)
(5.700000000000003 0.1 0.4)
(5.700000000000003 0.1 0.2)
)
);
normal    (0 1 0);
negateParcelsOppositeNormal    no;
removeCollected    no;
surfaceFormat    vtk;
resetOnWrite    no;
log    yes;
}

A-26-1
{
type    particleCollector;
mode    polygon;
polygons
(
(
(5.700000000000003 0.1 0.2)
(5.700000000000003 0.1 0.4)
(5.900000000000003 0.1 0.4)
(5.900000000000003 0.1 0.2)
)
);
normal    (0 1 0);
negateParcelsOppositeNormal    no;
removeCollected    no;
surfaceFormat    vtk;
resetOnWrite    no;
log    yes;
}

A-27-1
{
type    particleCollector;
mode    polygon;
polygons
(
(
(5.900000000000003 0.1 0.2)
(5.900000000000003 0.1 0.4)
(6.100000000000003 0.1 0.4)
(6.100000000000003 0.1 0.2)
)
);
normal    (0 1 0);
negateParcelsOppositeNormal    no;
removeCollected    no;
surfaceFormat    vtk;
resetOnWrite    no;
log    yes;
}

A-28-1
{
type    particleCollector;
mode    polygon;
polygons
(
(
(6.100000000000003 0.1 0.2)
(6.100000000000003 0.1 0.4)
(6.300000000000003 0.1 0.4)
(6.300000000000003 0.1 0.2)
)
);
normal    (0 1 0);
negateParcelsOppositeNormal    no;
removeCollected    no;
surfaceFormat    vtk;
resetOnWrite    no;
log    yes;
}

A-29-1
{
type    particleCollector;
mode    polygon;
polygons
(
(
(6.300000000000003 0.1 0.2)
(6.300000000000003 0.1 0.4)
(6.5000000000000036 0.1 0.4)
(6.5000000000000036 0.1 0.2)
)
);
normal    (0 1 0);
negateParcelsOppositeNormal    no;
removeCollected    no;
surfaceFormat    vtk;
resetOnWrite    no;
log    yes;
}

A-0-2
{
type    particleCollector;
mode    polygon;
polygons
(
(
(0.5 0.1 0.4)
(0.5 0.1 0.6000000000000001)
(0.7 0.1 0.6000000000000001)
(0.7 0.1 0.4000000000000001)
)
);
normal    (0 1 0);
negateParcelsOppositeNormal    no;
removeCollected    no;
surfaceFormat    vtk;
resetOnWrite    no;
log    yes;
}

A-1-2
{
type    particleCollector;
mode    polygon;
polygons
(
(
(0.7 0.1 0.4000000000000001)
(0.7 0.1 0.6000000000000001)
(0.8999999999999999 0.1 0.6000000000000001)
(0.8999999999999999 0.1 0.4000000000000001)
)
);
normal    (0 1 0);
negateParcelsOppositeNormal    no;
removeCollected    no;
surfaceFormat    vtk;
resetOnWrite    no;
log    yes;
}

A-2-2
{
type    particleCollector;
mode    polygon;
polygons
(
(
(0.8999999999999999 0.1 0.4000000000000001)
(0.8999999999999999 0.1 0.6000000000000001)
(1.0999999999999999 0.1 0.6000000000000001)
(1.0999999999999999 0.1 0.4000000000000001)
)
);
normal    (0 1 0);
negateParcelsOppositeNormal    no;
removeCollected    no;
surfaceFormat    vtk;
resetOnWrite    no;
log    yes;
}

A-3-2
{
type    particleCollector;
mode    polygon;
polygons
(
(
(1.0999999999999999 0.1 0.4000000000000001)
(1.0999999999999999 0.1 0.6000000000000001)
(1.2999999999999998 0.1 0.6000000000000001)
(1.2999999999999998 0.1 0.4000000000000001)
)
);
normal    (0 1 0);
negateParcelsOppositeNormal    no;
removeCollected    no;
surfaceFormat    vtk;
resetOnWrite    no;
log    yes;
}

A-4-2
{
type    particleCollector;
mode    polygon;
polygons
(
(
(1.2999999999999998 0.1 0.4000000000000001)
(1.2999999999999998 0.1 0.6000000000000001)
(1.4999999999999998 0.1 0.6000000000000001)
(1.4999999999999998 0.1 0.4000000000000001)
)
);
normal    (0 1 0);
negateParcelsOppositeNormal    no;
removeCollected    no;
surfaceFormat    vtk;
resetOnWrite    no;
log    yes;
}

A-5-2
{
type    particleCollector;
mode    polygon;
polygons
(
(
(1.4999999999999998 0.1 0.4000000000000001)
(1.4999999999999998 0.1 0.6000000000000001)
(1.6999999999999997 0.1 0.6000000000000001)
(1.6999999999999997 0.1 0.4000000000000001)
)
);
normal    (0 1 0);
negateParcelsOppositeNormal    no;
removeCollected    no;
surfaceFormat    vtk;
resetOnWrite    no;
log    yes;
}

A-6-2
{
type    particleCollector;
mode    polygon;
polygons
(
(
(1.6999999999999997 0.1 0.4000000000000001)
(1.6999999999999997 0.1 0.6000000000000001)
(1.8999999999999997 0.1 0.6000000000000001)
(1.8999999999999997 0.1 0.4000000000000001)
)
);
normal    (0 1 0);
negateParcelsOppositeNormal    no;
removeCollected    no;
surfaceFormat    vtk;
resetOnWrite    no;
log    yes;
}

A-7-2
{
type    particleCollector;
mode    polygon;
polygons
(
(
(1.8999999999999997 0.1 0.4000000000000001)
(1.8999999999999997 0.1 0.6000000000000001)
(2.0999999999999996 0.1 0.6000000000000001)
(2.0999999999999996 0.1 0.4000000000000001)
)
);
normal    (0 1 0);
negateParcelsOppositeNormal    no;
removeCollected    no;
surfaceFormat    vtk;
resetOnWrite    no;
log    yes;
}

A-8-2
{
type    particleCollector;
mode    polygon;
polygons
(
(
(2.0999999999999996 0.1 0.4000000000000001)
(2.0999999999999996 0.1 0.6000000000000001)
(2.3 0.1 0.6000000000000001)
(2.3 0.1 0.4000000000000001)
)
);
normal    (0 1 0);
negateParcelsOppositeNormal    no;
removeCollected    no;
surfaceFormat    vtk;
resetOnWrite    no;
log    yes;
}

A-9-2
{
type    particleCollector;
mode    polygon;
polygons
(
(
(2.3 0.1 0.4000000000000001)
(2.3 0.1 0.6000000000000001)
(2.5 0.1 0.6000000000000001)
(2.5 0.1 0.4000000000000001)
)
);
normal    (0 1 0);
negateParcelsOppositeNormal    no;
removeCollected    no;
surfaceFormat    vtk;
resetOnWrite    no;
log    yes;
}

A-10-2
{
type    particleCollector;
mode    polygon;
polygons
(
(
(2.5 0.1 0.4000000000000001)
(2.5 0.1 0.6000000000000001)
(2.7 0.1 0.6000000000000001)
(2.7 0.1 0.4000000000000001)
)
);
normal    (0 1 0);
negateParcelsOppositeNormal    no;
removeCollected    no;
surfaceFormat    vtk;
resetOnWrite    no;
log    yes;
}

A-11-2
{
type    particleCollector;
mode    polygon;
polygons
(
(
(2.7 0.1 0.4000000000000001)
(2.7 0.1 0.6000000000000001)
(2.9000000000000004 0.1 0.6000000000000001)
(2.9000000000000004 0.1 0.4000000000000001)
)
);
normal    (0 1 0);
negateParcelsOppositeNormal    no;
removeCollected    no;
surfaceFormat    vtk;
resetOnWrite    no;
log    yes;
}

A-12-2
{
type    particleCollector;
mode    polygon;
polygons
(
(
(2.9000000000000004 0.1 0.4000000000000001)
(2.9000000000000004 0.1 0.6000000000000001)
(3.1000000000000005 0.1 0.6000000000000001)
(3.1000000000000005 0.1 0.4000000000000001)
)
);
normal    (0 1 0);
negateParcelsOppositeNormal    no;
removeCollected    no;
surfaceFormat    vtk;
resetOnWrite    no;
log    yes;
}

A-13-2
{
type    particleCollector;
mode    polygon;
polygons
(
(
(3.1000000000000005 0.1 0.4000000000000001)
(3.1000000000000005 0.1 0.6000000000000001)
(3.3000000000000007 0.1 0.6000000000000001)
(3.3000000000000007 0.1 0.4000000000000001)
)
);
normal    (0 1 0);
negateParcelsOppositeNormal    no;
removeCollected    no;
surfaceFormat    vtk;
resetOnWrite    no;
log    yes;
}

A-14-2
{
type    particleCollector;
mode    polygon;
polygons
(
(
(3.3000000000000007 0.1 0.4000000000000001)
(3.3000000000000007 0.1 0.6000000000000001)
(3.500000000000001 0.1 0.6000000000000001)
(3.500000000000001 0.1 0.4000000000000001)
)
);
normal    (0 1 0);
negateParcelsOppositeNormal    no;
removeCollected    no;
surfaceFormat    vtk;
resetOnWrite    no;
log    yes;
}

A-15-2
{
type    particleCollector;
mode    polygon;
polygons
(
(
(3.500000000000001 0.1 0.4000000000000001)
(3.500000000000001 0.1 0.6000000000000001)
(3.700000000000001 0.1 0.6000000000000001)
(3.700000000000001 0.1 0.4000000000000001)
)
);
normal    (0 1 0);
negateParcelsOppositeNormal    no;
removeCollected    no;
surfaceFormat    vtk;
resetOnWrite    no;
log    yes;
}

A-16-2
{
type    particleCollector;
mode    polygon;
polygons
(
(
(3.700000000000001 0.1 0.4000000000000001)
(3.700000000000001 0.1 0.6000000000000001)
(3.9000000000000012 0.1 0.6000000000000001)
(3.9000000000000012 0.1 0.4000000000000001)
)
);
normal    (0 1 0);
negateParcelsOppositeNormal    no;
removeCollected    no;
surfaceFormat    vtk;
resetOnWrite    no;
log    yes;
}

A-17-2
{
type    particleCollector;
mode    polygon;
polygons
(
(
(3.9000000000000012 0.1 0.4000000000000001)
(3.9000000000000012 0.1 0.6000000000000001)
(4.100000000000001 0.1 0.6000000000000001)
(4.100000000000001 0.1 0.4000000000000001)
)
);
normal    (0 1 0);
negateParcelsOppositeNormal    no;
removeCollected    no;
surfaceFormat    vtk;
resetOnWrite    no;
log    yes;
}

A-18-2
{
type    particleCollector;
mode    polygon;
polygons
(
(
(4.100000000000001 0.1 0.4000000000000001)
(4.100000000000001 0.1 0.6000000000000001)
(4.300000000000002 0.1 0.6000000000000001)
(4.300000000000002 0.1 0.4000000000000001)
)
);
normal    (0 1 0);
negateParcelsOppositeNormal    no;
removeCollected    no;
surfaceFormat    vtk;
resetOnWrite    no;
log    yes;
}

A-19-2
{
type    particleCollector;
mode    polygon;
polygons
(
(
(4.300000000000002 0.1 0.4000000000000001)
(4.300000000000002 0.1 0.6000000000000001)
(4.500000000000002 0.1 0.6000000000000001)
(4.500000000000002 0.1 0.4000000000000001)
)
);
normal    (0 1 0);
negateParcelsOppositeNormal    no;
removeCollected    no;
surfaceFormat    vtk;
resetOnWrite    no;
log    yes;
}

A-20-2
{
type    particleCollector;
mode    polygon;
polygons
(
(
(4.500000000000002 0.1 0.4000000000000001)
(4.500000000000002 0.1 0.6000000000000001)
(4.700000000000002 0.1 0.6000000000000001)
(4.700000000000002 0.1 0.4000000000000001)
)
);
normal    (0 1 0);
negateParcelsOppositeNormal    no;
removeCollected    no;
surfaceFormat    vtk;
resetOnWrite    no;
log    yes;
}

A-21-2
{
type    particleCollector;
mode    polygon;
polygons
(
(
(4.700000000000002 0.1 0.4000000000000001)
(4.700000000000002 0.1 0.6000000000000001)
(4.900000000000002 0.1 0.6000000000000001)
(4.900000000000002 0.1 0.4000000000000001)
)
);
normal    (0 1 0);
negateParcelsOppositeNormal    no;
removeCollected    no;
surfaceFormat    vtk;
resetOnWrite    no;
log    yes;
}

A-22-2
{
type    particleCollector;
mode    polygon;
polygons
(
(
(4.900000000000002 0.1 0.4000000000000001)
(4.900000000000002 0.1 0.6000000000000001)
(5.100000000000002 0.1 0.6000000000000001)
(5.100000000000002 0.1 0.4000000000000001)
)
);
normal    (0 1 0);
negateParcelsOppositeNormal    no;
removeCollected    no;
surfaceFormat    vtk;
resetOnWrite    no;
log    yes;
}

A-23-2
{
type    particleCollector;
mode    polygon;
polygons
(
(
(5.100000000000002 0.1 0.4000000000000001)
(5.100000000000002 0.1 0.6000000000000001)
(5.3000000000000025 0.1 0.6000000000000001)
(5.3000000000000025 0.1 0.4000000000000001)
)
);
normal    (0 1 0);
negateParcelsOppositeNormal    no;
removeCollected    no;
surfaceFormat    vtk;
resetOnWrite    no;
log    yes;
}

A-24-2
{
type    particleCollector;
mode    polygon;
polygons
(
(
(5.3000000000000025 0.1 0.4000000000000001)
(5.3000000000000025 0.1 0.6000000000000001)
(5.500000000000003 0.1 0.6000000000000001)
(5.500000000000003 0.1 0.4000000000000001)
)
);
normal    (0 1 0);
negateParcelsOppositeNormal    no;
removeCollected    no;
surfaceFormat    vtk;
resetOnWrite    no;
log    yes;
}

A-25-2
{
type    particleCollector;
mode    polygon;
polygons
(
(
(5.500000000000003 0.1 0.4000000000000001)
(5.500000000000003 0.1 0.6000000000000001)
(5.700000000000003 0.1 0.6000000000000001)
(5.700000000000003 0.1 0.4000000000000001)
)
);
normal    (0 1 0);
negateParcelsOppositeNormal    no;
removeCollected    no;
surfaceFormat    vtk;
resetOnWrite    no;
log    yes;
}

A-26-2
{
type    particleCollector;
mode    polygon;
polygons
(
(
(5.700000000000003 0.1 0.4000000000000001)
(5.700000000000003 0.1 0.6000000000000001)
(5.900000000000003 0.1 0.6000000000000001)
(5.900000000000003 0.1 0.4000000000000001)
)
);
normal    (0 1 0);
negateParcelsOppositeNormal    no;
removeCollected    no;
surfaceFormat    vtk;
resetOnWrite    no;
log    yes;
}

A-27-2
{
type    particleCollector;
mode    polygon;
polygons
(
(
(5.900000000000003 0.1 0.4000000000000001)
(5.900000000000003 0.1 0.6000000000000001)
(6.100000000000003 0.1 0.6000000000000001)
(6.100000000000003 0.1 0.4000000000000001)
)
);
normal    (0 1 0);
negateParcelsOppositeNormal    no;
removeCollected    no;
surfaceFormat    vtk;
resetOnWrite    no;
log    yes;
}

A-28-2
{
type    particleCollector;
mode    polygon;
polygons
(
(
(6.100000000000003 0.1 0.4000000000000001)
(6.100000000000003 0.1 0.6000000000000001)
(6.300000000000003 0.1 0.6000000000000001)
(6.300000000000003 0.1 0.4000000000000001)
)
);
normal    (0 1 0);